/*--------------------------------*- C++ -*----------------------------------*\
| =========                 |                                                 |
| \\      /  F ield         | foam-extend: Open Source CFD                    |
|  \\    /   O peration     | Version:     3.1                                |
|   \\  /    A nd           | Web:         http://www.extend-project.de       |
|    \\/     M anipulation  |                                                 |
\*---------------------------------------------------------------------------*/
FoamFile
{
    version     2.0;
    format      ascii;
    class       dictionary;
    location    "system";
    object      fvSchemes;
}
// * * * * * * * * * * * * * * * * * * * * * * * * * * * * * * * * * * * * * //

ddtSchemes
{
    ddt(rho,U) backward;
    ddt(epsilon) backward;
    ddt(omega) backward;
    ddt(k) backward;
}

gradSchemes
{
    default Gauss linear;
    grad(p) Gauss linear;
}

divSchemes
{
    div(phi,U) Gauss GammaVDC 0.5;
    div((nuEff*dev(grad(U).T()))) Gauss linear;
    div(phi,epsilon) Gauss upwind phi;
    div(phi,omega) Gauss upwind phi;
    div(phi,k) Gauss upwind phi;
}

laplacianSchemes
{
    default none;
    laplacian(mu,U) Gauss linear corrected;
    laplacian((1|A(U)),p) Gauss linear corrected;
    laplacian(nuEff,U) Gauss linear corrected;
    laplacian(DepsilonEff,epsilon) Gauss linear corrected;
    laplacian(DomegaEff,omega) Gauss linear corrected;
    laplacian(DkEff,k) Gauss linear corrected;
}

interpolationSchemes
{
    default linear;
}

snGradSchemes
{
    default corrected;
}

fluxRequired
{
    p;
}

// ************************************************************************* //
