/*--------------------------------*- C++ -*----------------------------------*\
| =========                 |                                                 |
| \\      /  F ield         | foam-extend: Open Source CFD                    |
|  \\    /   O peration     | Version:     3.2                                |
|   \\  /    A nd           | Web:         http://www.foam-extend.org         |
|    \\/     M anipulation  |                                                 |
\*---------------------------------------------------------------------------*/
FoamFile
{
    version     2.0;
    format      ascii;
    class       dictionary;
    object      fvSchemes;
}
// * * * * * * * * * * * * * * * * * * * * * * * * * * * * * * * * * * * * * //

ddtSchemes
{
    default                           none;
}

gradSchemes
{
    default                           none;

    curl(A0Re)                        Gauss linear;
    curl(A0Im)                        Gauss linear;
}

divSchemes
{
    default                           none;
}

laplacianSchemes
{
    default                           none;

    laplacian(A0Re)                   Gauss linear corrected;
    laplacian(A0Im)                   Gauss linear corrected;
}

interpolationSchemes
{
    default                           none;

    interpolate(A0Re)                 linear;
    interpolate(A0Im)                 linear;

    interpolate(ARe)                  linear;
    interpolate(AIm)                  linear;
}

// ************************************************************************* //
