/*--------------------------------*- C++ -*----------------------------------*\
| =========                 |                                                 |
| \\      /  F ield         | foam-extend: Open Source CFD                    |
|  \\    /   O peration     | Version:     4.0                                |
|   \\  /    A nd           | Web:         http://www.foam-extend.org         |
|    \\/     M anipulation  | For copyright notice see file Copyright         |
\*---------------------------------------------------------------------------*/
FoamFile
{
    version     2.0;
    format      ascii;
    class       dictionary;
    object      decomposeParDict;
}
// * * * * * * * * * * * * * * * * * * * * * * * * * * * * * * * * * * * * * //

#include "decomposeParDict.include"

preserveFaceSets        (faceSet_regions);

method                  metis;

metisCoeffs
{
    method              k-way; // recursive

//     imbalanceTolerances (1.01);

    regionBalancing      yes;

    regionCellSets
    (
        cellSet_region_conductor
        cellSet_region_space
    );

    regionWeightFactors  (10.0);
}

// ************************************************************************* //
