/*--------------------------------*- C++ -*----------------------------------*\
| =========                 |                                                 |
| \\      /  F ield         | foam-extend: Open Source CFD                    |
|  \\    /   O peration     | Version:     3.1                                |
|   \\  /    A nd           | Web:         http://www.extend-project.de       |
|    \\/     M anipulation  |                                                 |
\*---------------------------------------------------------------------------*/
FoamFile
{
    version 2.0;
    format  ascii;
    class   dictionary;
    object  blockMeshDict;
}
// * * * * * * * * * * * * * * * * * * * * * * * * * * * * * * * * * * * * * //

convertToMeters 0.001;

vertices
(
    (-150 0.625 -60)
    (150 0.625 -60)
    (-150 0.625 140)
    (150 0.625 140)
    (-150 1.875 -60)
    (150 1.875 -60)
    (-150 1.875 140)
    (150 1.875 140)
);

blocks
(
    hex (0 1 5 4 2 3 7 6) background (60 1 40) simpleGrading (1 1 1)
);

edges
(
);

boundary
(
    front
    {
        type empty;
        faces
        (
            (0 1 3 2)
        );
    }

    back
    {
        type empty;
        faces
        (
            (5 4 6 7)
        );
    }

    infinity
    {
        type patch;
        faces
        (
            (4 0 2 6)
            (1 5 7 3)
            (4 5 1 0)
            (2 3 7 6)
        );
    }
);

mergePatchPairs
(
);

// ************************************************************************* //

