/*--------------------------------*- C++ -*----------------------------------*\
| =========                 |                                                 |
| \\      /  F ield         | foam-extend: Open Source CFD                    |
|  \\    /   O peration     | Version:     3.1                                |
|   \\  /    A nd           | Web:         http://www.extend-project.de       |
|    \\/     M anipulation  |                                                 |
\*---------------------------------------------------------------------------*/
FoamFile
{
    version     2.0;
    format      ascii;
    class       dictionary;
    object      controlDict;
}
// * * * * * * * * * * * * * * * * * * * * * * * * * * * * * * * * * * * * * //

// ************************* SIMLUTAITON TIMES ***************************** //

application         eddyCurrentFoam;

startFrom           latestTime;

startTime           0;

stopAt              endTime;

endTime             100;

// *************************** TIME STEPPING ******************************* //

deltaT              1;

adjustTimeStep      yes;

maxCo               0.3;

maxDeltaT           1;

// *************************** OUTPUT SETTINGS ***************************** //

writeControl        adjustableRunTime;

writeInterval       1;

purgeWrite          0;

cycleWrite          0;

writeFormat         ascii;

// writePrecision      8;
writePrecision      12;

writeCompression    uncompressed;

timeFormat          general;

timePrecision       8;

// **************************** OTHER SETTINGS ***************************** //

runTimeModifiable   yes;

// **************************** DEBUG SWITCHES ***************************** //

// *************************** FUNCTION OBJECTS **************************** //

// ******************************* LIBRARIES ******************************* //

// ************************************************************************* //
