/*--------------------------------*- C++ -*----------------------------------*\
| =========                 |                                                 |
| \\      /  F ield         | foam-extend: Open Source CFD                    |
|  \\    /   O peration     | Version:     3.1                                |
|   \\  /    A nd           | Web:         http://www.extend-project.de       |
|    \\/     M anipulation  |                                                 |
\*---------------------------------------------------------------------------*/
FoamFile
{
    version     2.0;
    format      ascii;
    class       dictionary;
    object      fvSolution;
}
// * * * * * * * * * * * * * * * * * * * * * * * * * * * * * * * * * * * * * //

AV
{
    method                       "segregated";
//     method                       "coupled";

    segregated
    {
        corr                     1;
    }

    coupled
    {
        corr                     1;
    }
}

solvers
{
    "(AV)"
//     {
//         solver                   GaussSeidel;
//
//         tolerance                1e-05;
//         relTol                   0;
//
//         minIter                  1;
//         maxIter                  100;
//
//         preconditioner           none;
//
//         nSweeps                  1;
//     }
    {
        solver                   BiCGStab;

        tolerance                1e-05;
        relTol                   0;

        minIter                  1;
        maxIter                  30;

        preconditioner           Cholesky;
    }
//     {
//         solver                   GMRES;
//
//         tolerance                1e-05;
//         relTol                   0;
//
//         minIter                  1;
//         maxIter                  30;
//
//         preconditioner           Cholesky;
//
//         nDirections              3;
//     }
//     {
//         solver                   AMG;
//         tolerance                1e-05;
//         relTol                   0;
//
//         minIter                  0;
//         maxIter                  500;
//
//         smoother                 GaussSeidel; // ILU, GaussSeidel
//         nPreSweeps               0;
//         nPostSweeps              2;
//
//         coarseningType           AAMG; // AAMG
//         cycle                    V-cycle; // V-cycle, F-cycle, W-cycle
//         minCoarseEqns            4;
//         nMaxLevels               100;
//         groupSize                10;
//
//         norm                     twoNorm; // componentNorm, maxNorm, twoNorm
//         normComponent            0; // for norm=componentNorm
//         scale                    on;
//     }


    "(A|V)"
    {
        solver                   BiCGStab;

        tolerance                1e-05;
        relTol                   0;

        minIter                  1;
        maxIter                  300;

        preconditioner           Cholesky;
    }
//     {
//         solver                   AMG;
//         tolerance                1e-06;
//         relTol                   0;
//
//         minIter                  0;
//         maxIter                  500;
//
//         smoother                 ILU; // ILU, GaussSeidel
//         nPreSweeps               0;
//         nPostSweeps              2;
//
//         coarseningType           AAMG; // AAMG
//         cycle                    V-cycle; // V-cycle, F-cycle, W-cycle
//         minCoarseEqns            4;
//         nMaxLevels               100;
//         groupSize                3;
//
//         norm                     twoNorm; // componentNorm, maxNorm, twoNorm
//         normComponent            0; // for norm=componentNorm
//         scale                    on;
//     }

    "(sigmaV)"
    {
        solver                   BiCGStab;

        tolerance                1e-05;
        relTol                   0;

        minIter                  1;
        maxIter                  1000;

        preconditioner           Cholesky;
    }
//     {
//         solver                   GAMG;
//
//         tolerance                1e-05;
//         relTol                   0;
//
//         minIter                  1;
//         maxIter                  100;
//
//         smoother                 DICGaussSeidel;
//         nPreSweeps               0;
//         nPostSweeps              2;
//
//         directSolveCoarsest      off;
//         cacheAgglomeration       on;
//         agglomerator             faceAreaPair;
//         nCellsInCoarsestLevel    200;
//         mergeLevels              1;
//     }

    "(VRe|VIm)"
    {
        solver                   BiCGStab;

        tolerance                1e-05;
        relTol                   0;

        minIter                  1;
        maxIter                  1000;

        preconditioner           DILU; // Cholesky
    }
//     {
//         solver                   GAMG;
//
//         tolerance                1e-05;
//         relTol                   0;
//
//         minIter                  1;
//         maxIter                  100;
//
// //         smoother                 DICGaussSeidel;
//         smoother                 DILUGaussSeidel;
//         nPreSweeps               0;
//         nPostSweeps              2;
//
//         directSolveCoarsest      off;
//         cacheAgglomeration       on;
//         agglomerator             faceAreaPair;
//         nCellsInCoarsestLevel    200;
//         mergeLevels              1;
//     }
}

// ************************************************************************* //
