/*--------------------------------*- C++ -*----------------------------------*\
| =========                 |                                                 |
| \\      /  F ield         | foam-extend: Open Source CFD                    |
|  \\    /   O peration     | Version:     3.2                                |
|   \\  /    A nd           | Web:         http://www.foam-extend.org         |
|    \\/     M anipulation  |                                                 |
\*---------------------------------------------------------------------------*/
FoamFile
{
    version     2.0;
    format      ascii;
    class       dictionary;
    object      interTrackEddyCurrentProperties;
}
// * * * * * * * * * * * * * * * * * * * * * * * * * * * * * * * * * * * * * //

settings
{
//     debug                   1;
}

regions
{
    conductor               region_conductor;
    fluid                   region_fluid;
    buffer                  region_buffer;
}

storage
{
}

emUpdate
{
    enabled                 yes;

    outputTimeIndexCycle    5;
    timeIndexCycle          2147483647;
    timeCycle               1e+300;

    relDeltaAmax            0.01;
}

// ************************************************************************* //
