/*--------------------------------*- C++ -*----------------------------------*\
| =========                 |                                                 |
| \\      /  F ield         | foam-extend: Open Source CFD                    |
|  \\    /   O peration     | Version:     3.1                                |
|   \\  /    A nd           | Web:         http://www.extend-project.de       |
|    \\/     M anipulation  |                                                 |
\*---------------------------------------------------------------------------*/
FoamFile
{
    version     2.0;
    format      ascii;
    class       dictionary;
    object      faMeshDefinition;
}
// ************************************************************************** //

polyMeshPatches  1( freeSurface );

boundary
{
    fixedWallSide
    {
        type                patch;
        ownerPolyPatch      freeSurface;
        neighbourPolyPatch  fixedWallSide;
    }
}

// ************************************************************************** //
