/*--------------------------------*- C++ -*----------------------------------*\
| =========                 |                                                 |
| \\      /  F ield         | foam-extend: Open Source CFD                    |
|  \\    /   O peration     | Version:     4.0                                |
|   \\  /    A nd           | Web:         http://www.foam-extend.org         |
|    \\/     M anipulation  | For copyright notice see file Copyright         |
\*---------------------------------------------------------------------------*/
FoamFile
{
    version     2.0;
    format      ascii;
    class       dictionary;
    object      funkySetFieldsDict;
}
// * * * * * * * * * * * * * * * * * * * * * * * * * * * * * * * * * * * * * //

materialProperties
(
    // Data from Vladi
    "lambda_siliconLiquid=66.448;"   // 2580*942.727*3.333e-7/0.0122 (rho * cp * nu / pr)
    "lambda_siliconSolid=128.8;"   // 2300*700*8e-5 (rho * cp * kappa)
);

expressions
(
    lambda_reset
    {
        field         lambda;
        expression    "0";
    }

    lambda_siliconLiquid
    {
        field         lambda;
        variables     $materialProperties;
        expression    "lambda_siliconLiquid";
        condition     "set(cellSet_material_siliconLiquid)";
    }

    lambda_siliconSolid
    {
        field         lambda;
        variables     $materialProperties;
        expression    "lambda_siliconSolid";
        condition     "set(cellSet_material_siliconSolid)";
    }
);

// ************************************************************************* //
