/*--------------------------------*- C++ -*----------------------------------*\
| =========                 |                                                 |
| \\      /  F ield         | foam-extend: Open Source CFD                    |
|  \\    /   O peration     | Version:     4.0                                |
|   \\  /    A nd           | Web:         http://www.foam-extend.org         |
|    \\/     M anipulation  | For copyright notice see file Copyright         |
\*---------------------------------------------------------------------------*/
FoamFile
{
    version     2.0;
    format      ascii;
    class       dictionary;
    object      funkySetBoundaryDict;
}
// * * * * * * * * * * * * * * * * * * * * * * * * * * * * * * * * * * * * * //

temperature_gradient
{
    field                 T;

    expressions
    (
        {
            target        value;
            patchName     "topWall";
            expression    "50.0*(pos().z-0.022)";
        }
        {
            target        value;
            patchName     "sideWall";
            expression    "50.0*(pos().z-0.022)";
        }
        {
            target        value;
            patchName     "cornerWall";
            expression    "50.0*(pos().z-0.022)";
        }
        {
            target        value;
            patchName     "solidWall";
            expression    "50.0*(pos().z-0.022)";
        }
    );
}

// ************************************************************************* //
