/*--------------------------------*- C++ -*----------------------------------*\
| =========                 |                                                 |
| \\      /  F ield         | foam-extend: Open Source CFD                    |
|  \\    /   O peration     | Version:     4.0                                |
|   \\  /    A nd           | Web:         http://www.foam-extend.org         |
|    \\/     M anipulation  | For copyright notice see file Copyright         |
\*---------------------------------------------------------------------------*/
FoamFile
{
    version     2.0;
    format      ascii;
    class       dictionary;
    object      controlDict;
}
// * * * * * * * * * * * * * * * * * * * * * * * * * * * * * * * * * * * * * //

// ************************* SIMLUTAITON TIMES ***************************** //

application         eddyCurrentFoam;

startFrom           latestTime;

startTime           0;

stopAt              endTime;

endTime             1;

// *************************** TIME STEPPING ******************************* //

deltaT              1;

adjustTimeStep      yes;

maxCo               0.3;

maxDeltaT           1;

// *************************** OUTPUT SETTINGS ***************************** //

writeControl        adjustableRunTime;

writeInterval       1;

purgeWrite          0;

cycleWrite          0;

// writeFormat         binary; // ascii
writeFormat         ascii;

writePrecision      8;

writeCompression    uncompressed;

timeFormat          general;

timePrecision       8;

// **************************** OTHER SETTINGS ***************************** //

runTimeModifiable   yes;

// OptimisationSwitches
// {
//     commsType       nonBlocking;
// }

// **************************** DEBUG SWITCHES ***************************** //

// *************************** FUNCTION OBJECTS **************************** //

// ******************************* LIBRARIES ******************************* //

// ************************************************************************* //
