/*--------------------------------*- C++ -*----------------------------------*\
| =========                 |                                                 |
| \\      /  F ield         | foam-extend: Open Source CFD                    |
|  \\    /   O peration     | Version:     4.0                                |
|   \\  /    A nd           | Web:         http://www.foam-extend.org         |
|    \\/     M anipulation  | For copyright notice see file Copyright         |
\*---------------------------------------------------------------------------*/
FoamFile
{
    version     2.0;
    format      ascii;
    class       dictionary;
    object      fvSchemes;
}
// * * * * * * * * * * * * * * * * * * * * * * * * * * * * * * * * * * * * * //

ddtSchemes
{
    default                           none;
}

gradSchemes
{
    default                           none;

    curl(ARe)                         Gauss fluxConservative "nur" "phiGradAnRe";
    curl(AIm)                         Gauss fluxConservative "nur" "phiGradAnIm";

    grad(ARe)                         Gauss fluxConservative "nur" "phiGradAnRe";
    grad(AIm)                         Gauss fluxConservative "nur" "phiGradAnIm";
}

divSchemes
{
    default                           none;

    div(ARe)                          Gauss fluxConservative "nur" "phiGradAnRe";
    div(AIm)                          Gauss fluxConservative "nur" "phiGradAnIm";
}

laplacianSchemes
{
    default                           none;

    laplacian(nurf,ARe)               jumpGauss harmonic corrected "nur" "phiGradAnRe";
    laplacian(nurf,AIm)               jumpGauss harmonic corrected "nur" "phiGradAnIm";
}

interpolationSchemes
{
    default                           none;

    interpolate(nur)                  harmonic;

    interpolate(ARe)                  fluxConservative "nur" "phiGradAnRe";
    interpolate(AIm)                  fluxConservative "nur" "phiGradAnIm";

    interpolate(grad(ARe))            linear;
    interpolate(grad(AIm))            linear;
}

fluxRequired
{
}

// ************************************************************************* //
