/*--------------------------------*- C++ -*----------------------------------*\
| =========                 |                                                 |
| \\      /  F ield         | foam-extend: Open Source CFD                    |
|  \\    /   O peration     | Version:     3.2                                |
|   \\  /    A nd           | Web:         http://www.foam-extend.org         |
|    \\/     M anipulation  |                                                 |
\*---------------------------------------------------------------------------*/
FoamFile
{
    version     2.0;
    format      ascii;
    class       dictionary;
    object      interTrackProperties;
}

// * * * * * * * * * * * * * * * * * * * * * * * * * * * * * * * * * * * * * //

settings
{
//     debug                   1;

    region_fluid
    {
        volumeForce         true;
        turbulence          false;

        UpCoupled           false;
        UEqnVolumeForce     false;
        snGradpFromFlux     true;
    }
}

storage
{
    region_fluid
    {
        F                  "calculated";
        turbulence         "default";
    }
}

// ************************************************************************* //
