/*--------------------------------*- C++ -*----------------------------------*\
| =========                 |                                                 |
| \\      /  F ield         | foam-extend: Open Source CFD                    |
|  \\    /   O peration     | Version:     3.2                                |
|   \\  /    A nd           | Web:         http://www.foam-extend.org         |
|    \\/     M anipulation  |                                                 |
\*---------------------------------------------------------------------------*/
FoamFile
{
    version     2.0;
    format      ascii;
    class       dictionary;
    object      trackedSurfaceProperties;
}
// * * * * * * * * * * * * * * * * * * * * * * * * * * * * * * * * * * * * * //

twoFluids                                    no;

cleanInterface                               yes;

noCleanTangentialSurfaceTensionCorrection    yes;

normalMotionDir                              yes;

fixedTrackedSurfacePatches                   0();

pointNormalsCorrectionPatches                0();

nTrackedSurfaceCorrectors                    1;

interfaceDeformationLimit                    0.2;

// useSubMesh                                   yes;

correctVolume                                yes;

resetControlPoints                           yes;

// smoothing                                    yes;

// freeContactAngle                             yes;

// correctPointNormals                          yes;
// correctDisplacement                          yes;
// correctCurvature                             yes;
//
// fvcNGradUn                                   yes;

// ************************************************************************* //
