/*--------------------------------*- C++ -*----------------------------------*\
| =========                 |                                                 |
| \\      /  F ield         | foam-extend: Open Source CFD                    |
|  \\    /   O peration     | Version:     3.1                                |
|   \\  /    A nd           | Web:         http://www.extend-project.de       |
|    \\/     M anipulation  |                                                 |
\*---------------------------------------------------------------------------*/
FoamFile
{
    version     2.0;
    format      ascii;
    class       dictionary;
    object      magneticProperties;
}
// * * * * * * * * * * * * * * * * * * * * * * * * * * * * * * * * * * * * * //

names
{
    interface            "faceSet_solver_cn";

    conductivity         "sigma";
    electricPotential    "V";
    magneticPotential    "A";
}

frequency                frequency [ 0 0 -1 0 0 0 0 ] 10000.0;

// ************************************************************************* //
