/*--------------------------------*- C++ -*----------------------------------*\
| =========                 |                                                 |
| \\      /  F ield         | OpenFOAM: The Open Source CFD Toolbox           |
|  \\    /   O peration     | Version:  2.3.x                                 |
|   \\  /    A nd           | Web:      www.OpenFOAM.org                      |
|    \\/     M anipulation  |                                                 |
\*---------------------------------------------------------------------------*/
FoamFile
{
    version     2.0;
    format      ascii;
    class       polyBoundaryMesh;
    location    "constant/polyMesh";
    object      boundary;
}
// * * * * * * * * * * * * * * * * * * * * * * * * * * * * * * * * * * * * * //

3
(
    fixedWallBottom
    {
        type            wall;
        inGroups        1(wall);
        nFaces          1620;
        startFace       286380;
    }
    freeSurface
    {
        type            patch;
        nFaces          1620;
        startFace       288000;
    }
    fixedWallSide
    {
        type            wall;
        inGroups        1(wall);
        nFaces          7200;
        startFace       289620;
    }
)

// ************************************************************************* //
