/*--------------------------------*- C++ -*----------------------------------*\
| =========                 |                                                 |
| \\      /  F ield         | foam-extend: Open Source CFD                    |
|  \\    /   O peration     | Version:     3.2                                |
|   \\  /    A nd           | Web:         http://www.foam-extend.org         |
|    \\/     M anipulation  |                                                 |
\*---------------------------------------------------------------------------*/
FoamFile
{
    version     2.0;
    format      ascii;
    class       dictionary;
    object      fvSchemes;
}
// * * * * * * * * * * * * * * * * * * * * * * * * * * * * * * * * * * * * * //

ddtSchemes
{
    default                           none;
}

gradSchemes
{
    default                           none;

    curl(ARe)                         Gauss linear;
    curl(AIm)                         Gauss linear;

    grad(ARe)                         Gauss linear;
    grad(AIm)                         Gauss linear;
}

divSchemes
{
    default                           none;
}

laplacianSchemes
{
    default                           none;

    laplacian(ARe)                    Gauss linear corrected;
    laplacian(AIm)                    Gauss linear corrected;
}

interpolationSchemes
{
    default                           none;

    interpolate(grad(ARe))            linear;
    interpolate(grad(AIm))            linear;
}

// ************************************************************************* //
