/*--------------------------------*- C++ -*----------------------------------*\
| =========                 |                                                 |
| \\      /  F ield         | foam-extend: Open Source CFD                    |
|  \\    /   O peration     | Version:     3.2                                |
|   \\  /    A nd           | Web:         http://www.foam-extend.org         |
|    \\/     M anipulation  |                                                 |
\*---------------------------------------------------------------------------*/
FoamFile
{
    version     2.0;
    format      ascii;
    class       dictionary;
    object      edgeBiotSavartProperties;
}
// * * * * * * * * * * * * * * * * * * * * * * * * * * * * * * * * * * * * * //

inductors
{
    coil
    {
        file       "coil.eMesh";
        reverse    false;
        current    1414.2136;
        phase      0.0;
    }

//     coil1
//     {
//         file       "coil1.eMesh";
//         reverse    false;
//         current    1414.2136;
//         phase      0.0;
//     }
//
//     coil2
//     {
//         file       "coil2.eMesh";
//         reverse    false;
//         current    1414.2136;
//         phase      0.0;
//     }
//
//     coil3
//     {
//         file       "coil3.eMesh";
//         reverse    false;
//         current    1414.2136;
//         phase      0.0;
//     }
}


// ************************************************************************* //
