/*--------------------------------*- C++ -*----------------------------------*\
| =========                 |                                                 |
| \\      /  F ield         | foam-extend: Open Source CFD                    |
|  \\    /   O peration     | Version:     4.0                                |
|   \\  /    A nd           | Web:         http://www.foam-extend.org         |
|    \\/     M anipulation  | For copyright notice see file Copyright         |
\*---------------------------------------------------------------------------*/
FoamFile
{
    version     2.0;
    format      ascii;
    class       dictionary;
    object      fvSolution;
}
// * * * * * * * * * * * * * * * * * * * * * * * * * * * * * * * * * * * * * //

solvers
{
    "(Ax|Ay|Az)"
    {
        solver                   BiCGStab;

        tolerance                1e-05;
        relTol                   0.1;

        minIter                  0;
        maxIter                  300;

        preconditioner           Cholesky;
    }
}

EDDYCURRENT
{
    interface          "trackedSurface";

    nCorrectors        10;
    nSubCorrectors     1000;

    residualControl
    {
        "(Ax|Ay|Az)"
        {
            tolerance  1e-05;
            relTol     0.1;
        }

        "(VRe|VIm)"
        {
            tolerance  1e-05;
            relTol     0.1;
        }
     }
}

relaxationFactors
{
}

// ************************************************************************* //
