/*--------------------------------*- C++ -*----------------------------------*\
| =========                 |                                                 |
| \\      /  F ield         | foam-extend: Open Source CFD                    |
|  \\    /   O peration     | Version:     4.0                                |
|   \\  /    A nd           | Web:         http://www.foam-extend.org         |
|    \\/     M anipulation  |                                                 |
\*---------------------------------------------------------------------------*/
FoamFile
{
    version     2.0;
    format      ascii;
    class       polyBoundaryMesh;
    location    "constant/polyMesh";
    object      boundary;
}
// * * * * * * * * * * * * * * * * * * * * * * * * * * * * * * * * * * * * * //

6
(
    frontAndBack
    {
        type            empty;
        nFaces          1328;
        startFace       1262;
    }
    symm_x
    {
        type            symmetryPlane;
        nFaces          37;
        startFace       2590;
    }
    side_y
    {
        type            wall;
        nFaces          9;
        startFace       2627;
    }
    side_x
    {
        type            wall;
        nFaces          9;
        startFace       2636;
    }
    symm_y
    {
        type            symmetryPlane;
        nFaces          37;
        startFace       2645;
    }
    trackedSurface
    {
        type            patch;
        nFaces          12;
        startFace       2682;
    }
)


// ************************************************************************* //
