/*--------------------------------*- C++ -*----------------------------------*\
| =========                 |                                                 |
| \\      /  F ield         | foam-extend: Open Source CFD                    |
|  \\    /   O peration     | Version:     3.2                                |
|   \\  /    A nd           | Web:         http://www.foam-extend.org         |
|    \\/     M anipulation  | For copyright notice see file Copyright         |
\*---------------------------------------------------------------------------*/
FoamFile
{
    version     2.0;
    format      ascii;
    class       dictionary;
    object      trackedSurfaceProperties;
}
// * * * * * * * * * * * * * * * * * * * * * * * * * * * * * * * * * * * * * //

twoFluids no;

normalMotionDir no;

motionDir (0 0 1);

cleanInterface yes;

muFluidA muFluidA [ 1 -1 -1 0 0 0 0 ] 0.01;

muFluidB muFluidB [ 1 -1 -1 0 0 0 0 ] 0;

rhoFluidA rhoFluidA [ 1 -3  0 0 0 0 0 ] 100;

rhoFluidB rhoFluidB   [ 1 -3  0 0 0 0 0 ] 1.0;

surfaceTension surfaceTension [ 1 0 -2 0 0 0 0 ] 1.0;

g g [ 0 1 -2 0 0 0 0 ] (0 0 -9.81);
// g g [ 0 1 -2 0 0 0 0 ] (0 0 0);

fixedTrackedSurfacePatches 0( );

// pointNormalsCorrectionPatches 2(side frontAndBack);
pointNormalsCorrectionPatches 1(frontAndBack);

nTrackedSurfaceCorrectors 1;

smoothing                                    yes;

freeContactAngle                             yes;

correctPointNormals                          no;
correctDisplacement                          no;
correctCurvature                             no;

fvcNGradUn                                   no;

surfactantProperties
{
    bulkConc            bulkConc            [ 0 -3  0 0  1 0 0 ] 1.0e-2;

    saturatedConc       saturatedSurfConc   [ 0 -2  0 0  1 0 0 ] 5.0e-6;

    adsorptionCoeff     adsorptionCoeff     [ 0  3 -1 0 -1 0 0 ] 40.0;

    desorptionCoeff     desorptionCoeff     [ 0 -3  0 0  1 0 0 ] 8.93e-2;

    bulkDiffusion       bulkDiffusion       [ 0  2 -1 0  0 0 0 ] 1.0e-9;

    diffusion           diffusion           [ 0  2 -1 0  0 0 0 ] 1.0e-9;

    temperature         temperature         [ 0  0  0 1  0 0 0 ] 293.0;
}

// ************************************************************************* //
