/*--------------------------------*- C++ -*----------------------------------*\
| =========                 |                                                 |
| \\      /  F ield         | foam-extend: Open Source CFD                    |
|  \\    /   O peration     | Version:     4.0                                |
|   \\  /    A nd           | Web:         http://www.foam-extend.org         |
|    \\/     M anipulation  | For copyright notice see file Copyright         |
\*---------------------------------------------------------------------------*/
FoamFile
{
    version     2.0;
    format      ascii;
    class       dictionary;
    object      eddyCurrentProperties;
}
// * * * * * * * * * * * * * * * * * * * * * * * * * * * * * * * * * * * * * //

regions
{
    conductor    "region_conductor";
}

settings
{
//     debug        1;

    biotSavart   true;

    region0
    {
    }

    region_conductor
    {
    }
}

storage
{
    region0
    {
    }

    region_conductor
    {
    }
}

// ************************************************************************* //
