/*--------------------------------*- C++ -*----------------------------------*\
| =========                 |                                                 |
| \\      /  F ield         | foam-extend: Open Source CFD                    |
|  \\    /   O peration     | Version:     4.0                                |
|   \\  /    A nd           | Web:         http://www.foam-extend.org         |
|    \\/     M anipulation  | For copyright notice see file Copyright         |
\*---------------------------------------------------------------------------*/
FoamFile
{
    version     2.0;
    format      ascii;
    class       dictionary;
    object      edgeBiotSavartProperties;
}
// * * * * * * * * * * * * * * * * * * * * * * * * * * * * * * * * * * * * * //

nNonOrthogonalCorrectors    10;

inductors
{
    coil1
    {
        file       "coil0.eMesh";
        reverse    false;
        current    39.2837 // = 1414.2136 / (4*9);
        phase      0.0;
    }

    coil2
    {
        file       "coil1.eMesh";
        reverse    false;
        current    39.2837 // = 1414.2136 / (4*9);
        phase      0.0;
    }

    coil3
    {
        file       "coil2.eMesh";
        reverse    false;
        current    39.2837 // = 1414.2136 / (4*9);
        phase      0.0;
    }

    coil4
    {
        file       "coil3.eMesh";
        reverse    false;
        current    39.2837 // = 1414.2136 / (4*9);
        phase      0.0;
    }
}

// ************************************************************************* //
