/*--------------------------------*- C++ -*----------------------------------*\
| =========                 |                                                 |
| \\      /  F ield         | foam-extend: Open Source CFD                    |
|  \\    /   O peration     | Version:     3.2                                |
|   \\  /    A nd           | Web:         http://www.foam-extend.org         |
|    \\/     M anipulation  |                                                 |
\*---------------------------------------------------------------------------*/
FoamFile
{
    version     2.0;
    format      ascii;
    class       dictionary;
    location    "system";
    object      fvSolution;
}
// * * * * * * * * * * * * * * * * * * * * * * * * * * * * * * * * * * * * * //

solvers
{
    p
    {
        solver          PCG;
        preconditioner  DIC;
        tolerance       1e-06;
        relTol          1e-01;
    }

    pFinal
    {
        solver          PCG;
        preconditioner  DIC;
        tolerance       1e-06;
        relTol          0;
    }

//     U
//     {
//         solver          PBiCG;
//         preconditioner  DILU;
//         tolerance       1e-08;
//         relTol          1e-01;
//     }
}

PIMPLE
{
    nOuterCorrectors            50;
    nCorrectors                 1;
    nNonOrthogonalCorrectors    50;
    pRefPoint (0.5 0.5 0);
    pRefValue 0;

    momentumPredictor no;

    residualControl
    {
//         U
//         {
//                 tolerance  1e-08;
//                 relTol     1e-02;
//         }
        p
        {
                tolerance  1e-06;
                relTol     1e-02;
        }
     }
}

relaxationFactors
{
//     p        0.3;
//     pFinal   1;
//
//     U        0.7;
}

// ************************************************************************* //
