/*--------------------------------*- C++ -*----------------------------------*\
| =========                 |                                                 |
| \\      /  F ield         | foam-extend: Open Source CFD                    |
|  \\    /   O peration     | Version:     4.0                                |
|   \\  /    A nd           | Web:         http://www.foam-extend.org         |
|    \\/     M anipulation  | For copyright notice see file Copyright         |
\*---------------------------------------------------------------------------*/
FoamFile
{
    version     2.0;
    format      ascii;
    class       dictionary;
    object      funkySetFieldsDict;
}
// * * * * * * * * * * * * * * * * * * * * * * * * * * * * * * * * * * * * * //

conc_data
();

expressions
(
    conc_reset
    {
        field         c;
        expression    "0";
        keepPatches   true;
        keepPatches   true;
    }

    conc_left_0
    {
        field         c;
        variables     $conc_data;
        expression    "1.0 + (pos().y-0.004)/0.008";
        keepPatches   true;
    }
);

// ************************************************************************* //

