/*--------------------------------*- C++ -*----------------------------------*\
| =========                 |                                                 |
| \\      /  F ield         | foam-extend: Open Source CFD                    |
|  \\    /   O peration     | Version:     4.0                                |
|   \\  /    A nd           | Web:         http://www.foam-extend.org         |
|    \\/     M anipulation  | For copyright notice see file Copyright         |
\*---------------------------------------------------------------------------*/
FoamFile
{
    version     2.0;
    format      ascii;
    class       dictionary;
    object      fvSchemes;
}
// * * * * * * * * * * * * * * * * * * * * * * * * * * * * * * * * * * * * * //

ddtSchemes
{
    ddt(rho,U) Euler;
    ddt(U) Euler;
    ddt(c) Euler;
}

gradSchemes
{
    default Gauss linear;
}

divSchemes
{
    defalut none;
    div(rho*phi,U) Gauss upwind phi;
    div((mu*dev(grad(U).T()))) Gauss linear;
    div((muEff*dev(grad(U).T()))) Gauss linear;
    div(phi,c) Gauss upwind phi;
}

laplacianSchemes
{
    default none;
    laplacian(mu,U) Gauss linear corrected;
    laplacian(muEff,U) Gauss linear corrected;
    laplacian(rAUf,p) Gauss linear corrected;
    laplacian(Dc,c) Gauss linear corrected;
}

interpolationSchemes
{
    default         linear;
}

// ************************************************************************* //
