/*--------------------------------*- C++ -*----------------------------------*\
| =========                 |                                                 |
| \\      /  F ield         | foam-extend: Open Source CFD                    |
|  \\    /   O peration     | Version:     3.1                                |
|   \\  /    A nd           | Web:         http://www.extend-project.de       |
|    \\/     M anipulation  |                                                 |
\*---------------------------------------------------------------------------*/
FoamFile
{
    version     2.0;
    format      ascii;
    class       dictionary;
    object      blockMeshDict;
}
// * * * * * * * * * * * * * * * * * * * * * * * * * * * * * * * * * * * * * //

convertToMeters 0.1;

vertices
(
    (0 0 0)
    (1 0 0)
    (1 1 0)
    (0 1 0)
    (0 0 1)
    (1 0 1)
    (1 1 1)
    (0 1 1)
);

blocks
(
    hex (0 1 2 3 4 5 6 7) (2 2 2) simpleGrading (1 1 1)
);

edges
(
);

boundary
(
    freeSurface
    {
        type wall;
        faces
        (
            (4 5 6 7)
        );
    }
    fixedWallSide-1
    {
        type wall;
        faces
        (
            (2 6 5 1)
        );
    }
    fixedWallSide-2
    {
        type wall;
        faces
        (
            (1 5 4 0)
        );
    }
    fixedWallSide-3
    {
        type wall;
        faces
        (
            (3 7 6 2)
        );
    }
    fixedWallSide-4
    {
        type wall;
        faces
        (
            (0 4 7 3)
        );
    }
    fixedWallBottom
    {
        type wall;
        faces
        (
            (0 3 2 1)
        );
    }
);

mergePatchPairs
(
);

// ************************************************************************* //
