/*--------------------------------*- C++ -*----------------------------------*\
| =========                 |                                                 |
| \\      /  F ield         | foam-extend: Open Source CFD                    |
|  \\    /   O peration     | Version:     4.0                                |
|   \\  /    A nd           | Web:         http://www.foam-extend.org         |
|    \\/     M anipulation  | For copyright notice see file Copyright         |
\*---------------------------------------------------------------------------*/
FoamFile
{
    version     2.0;
    format      ascii;
    class       dictionary;
    object      fvSchemes;
}
// * * * * * * * * * * * * * * * * * * * * * * * * * * * * * * * * * * * * * //

ddtSchemes
{
    default                           none;
}

gradSchemes
{
    default                           none;

    curl(A0Re)                        leastSquares;
    curl(A0Im)                        leastSquares;

    grad(A0Re)                        Gauss linear;
    grad(A0Im)                        Gauss linear;

    grad(AMRe)                        Gauss linear;
    grad(AMIm)                        Gauss linear;

    grad(VRe)                         Gauss linear;
    grad(VIm)                         Gauss linear;

    grad(sigma)                       Gauss linear;
}

divSchemes
{
    default                           none;
}

laplacianSchemes
{
    default                           none;

    laplacian(A0Re)                   Gauss linear corrected;
    laplacian(A0Im)                   Gauss linear corrected;

    laplacian(chiNurf,AMRe)           Gauss linear corrected;
    laplacian(chiNurf,AMIm)           Gauss linear corrected;

    laplacian(sigmaf,VRe)             Gauss linear corrected;
    laplacian(sigmaf,VIm)             Gauss linear corrected;

}

interpolationSchemes
{
    default                           none;

    interpolate(sigma)                harmonic;

    interpolate(chiNur)               harmonic;

    interpolate(grad(A0Re))           linear;
    interpolate(grad(A0Im))           linear;

    interpolate(grad(AMRe))           linear;
    interpolate(grad(AMIm))           linear;

    interpolate(grad(VRe))            linear;
    interpolate(grad(VIm))            linear;

    interpolate(A0Re)                 linear;
    interpolate(A0Im)                 linear;

    interpolate(ARe)                  linear;
    interpolate(AIm)                  linear;

// TEST/TODO: Better map phiGradAn from default region instead of re-calculation?
    interpolate(grad(ARe))            linear;
    interpolate(grad(AIm))            linear;
}

// ************************************************************************* //
