/*--------------------------------*- C++ -*----------------------------------*\
| =========                 |                                                 |
| \\      /  F ield         | foam-extend: Open Source CFD                    |
|  \\    /   O peration     | Version:     3.1                                |
|   \\  /    A nd           | Web:         http://www.extend-project.de       |
|    \\/     M anipulation  |                                                 |
\*---------------------------------------------------------------------------*/
FoamFile
{
    version     2.0;
    format      ascii;
    class       dictionary;
    object      interTrackProperties;
}

// * * * * * * * * * * * * * * * * * * * * * * * * * * * * * * * * * * * * * //

settings
{
    debug                   1;

    region0
    {
        UpCoupled           false;
        UpDirectForce       false;
        pFdirectCorrection  false;
    }
}

storage
{
    region0
    {
        F
        {
            enabled         true;
            init            "calculated";
        }

        turbulence
        {
            enabled         true;
        }
    }
}

// ************************************************************************* //
