/*--------------------------------*- C++ -*----------------------------------*\
| =========                 |                                                 |
| \\      /  F ield         | foam-extend: Open Source CFD                    |
|  \\    /   O peration     | Version:     3.1                                |
|   \\  /    A nd           | Web:         http://www.extend-project.de       |
|    \\/     M anipulation  |                                                 |
\*---------------------------------------------------------------------------*/
FoamFile
{
    version     2.0;
    format      ascii;
    class       dictionary;
    object      fvSchemes;
}
// * * * * * * * * * * * * * * * * * * * * * * * * * * * * * * * * * * * * * //

ddtSchemes
{
    default                           none;
}

gradSchemes
{
    default                           none;

    curl(ARe)                         Gauss linear;
    curl(AIm)                         Gauss linear;

    grad(AReDiv)                      Gauss linear;
    grad(AImDiv)                      Gauss linear;

    grad(sigmaV)                      Gauss linear;
    grad(VRe)                         Gauss linear;
    grad(VIm)                         Gauss linear;

    grad(GRe)                         Gauss linear;
    grad(GIm)                         Gauss linear;

    snGradCorr(ARex)                  Gauss linear;
    snGradCorr(ARey)                  Gauss linear;
    snGradCorr(ARez)                  Gauss linear;
    snGradCorr(AImx)                  Gauss linear;
    snGradCorr(AImy)                  Gauss linear;
    snGradCorr(AImz)                  Gauss linear;

    snGradCorr(sigmaV)                Gauss linear;
    snGradCorr(VRe)                   Gauss linear;
    snGradCorr(VIm)                   Gauss linear;

    snGradCorr(GRe)                   Gauss linear;
    snGradCorr(GIm)                   Gauss linear;
}

divSchemes
{
    default                           none;

    div(ARe)                          Gauss linear;
    div(AIm)                          Gauss linear;
}

laplacianSchemes
{
    default                           none;

    laplacian(ARex)                   Gauss linear uncorrected; // linear is not used here
    laplacian(ARey)                   Gauss linear uncorrected; // linear is not used here
    laplacian(ARez)                   Gauss linear uncorrected; // linear is not used here
    laplacian(AImx)                   Gauss linear uncorrected; // linear is not used here
    laplacian(AImy)                   Gauss linear uncorrected; // linear is not used here
    laplacian(AImz)                   Gauss linear uncorrected; // linear is not used here

    laplacian(sigmaV)                 Gauss linear uncorrected; // linear is not used here
    laplacian(sigmaV,VRe)             Gauss linear uncorrected; // linear is not used here
    laplacian(sigmaV,VIm)             Gauss linear uncorrected; // linear is not used here

    laplacian(GRe)                    Gauss linear uncorrected; // linear is not used here
    laplacian(GIm)                    Gauss linear uncorrected; // linear is not used here

//     laplacian(ARex)                   Gauss linear corrected; // linear is not used here
//     laplacian(ARey)                   Gauss linear corrected; // linear is not used here
//     laplacian(ARez)                   Gauss linear corrected; // linear is not used here
//     laplacian(AImx)                   Gauss linear corrected; // linear is not used here
//     laplacian(AImy)                   Gauss linear corrected; // linear is not used here
//     laplacian(AImz)                   Gauss linear corrected; // linear is not used here
//
//     laplacian(sigmaV)                 Gauss linear corrected; // linear is not used here
//     laplacian(sigmaV,VRe)             Gauss linear corrected; // linear is not used here
//     laplacian(sigmaV,VIm)             Gauss linear corrected; // linear is not used here
//
//     laplacian(GRe)                    Gauss linear corrected; // linear is not used here
//     laplacian(GIm)                    Gauss linear corrected; // linear is not used here
}

interpolationSchemes
{
    default                           none;

    interpolate(sigmaV)               linear;

    interpolate(ARe)                  linear;
    interpolate(AIm)                  linear;

    interpolate(VRe)                  linear;
    interpolate(VIm)                  linear;
}

// ************************************************************************* //
