/*--------------------------------*- C++ -*----------------------------------*\
| =========                 |                                                 |
| \\      /  F ield         | foam-extend: Open Source CFD                    |
|  \\    /   O peration     | Version:     3.1                                |
|   \\  /    A nd           | Web:         http://www.extend-project.de       |
|    \\/     M anipulation  |                                                 |
\*---------------------------------------------------------------------------*/
FoamFile
{
    version     2.0;
    format      ascii;
    class       dictionary;
    object      fvSchemes;
}
// * * * * * * * * * * * * * * * * * * * * * * * * * * * * * * * * * * * * * //

ddtSchemes
{
    default                           none;
}

gradSchemes
{
    default                           none;

    grad(sigma)                       Gauss linear;

//     curl(ARe)                         Gauss linear;
//     curl(AIm)                         Gauss linear;
    curl(ARe)                         leastSquares;
    curl(AIm)                         leastSquares;

    grad(VRe)                         Gauss linear;
    grad(VIm)                         Gauss linear;
}

divSchemes
{
    default                           none;
}

laplacianSchemes
{
    default                           none;

    laplacian(ARe)                    Gauss linear uncorrected; // linear is not used here
    laplacian(AIm)                    Gauss linear uncorrected; // linear is not used here

    laplacian(sigma,VRe)              Gauss linear uncorrected;
    laplacian(sigma,VIm)              Gauss linear uncorrected;
    laplacian(sigmaf,VRe)             Gauss linear uncorrected; // linear is not used here
    laplacian(sigmaf,VIm)             Gauss linear uncorrected; // linear is not used here
}

interpolationSchemes
{
    default                           none;

    interpolate(sigma)                linear;
    interpolate(alpha)                linear;

    interpolate(ARe)                  linear; // debug
    interpolate(AIm)                  linear; // debug

    interpolate(jRe)                  linear; // debug
    interpolate(jIm)                  linear; // debug
}

snGradSchemes
{
    default                           none;
}

// ************************************************************************* //
