/*--------------------------------*- C++ -*----------------------------------*\
| =========                 |                                                 |
| \\      /  F ield         | foam-extend: Open Source CFD                    |
|  \\    /   O peration     | Version:     3.1                                |
|   \\  /    A nd           | Web:         http://www.extend-project.de       |
|    \\/     M anipulation  |                                                 |
\*---------------------------------------------------------------------------*/
FoamFile
{
    version     2.0;
    format      ascii;
    class       dictionary;
    object      fvSolution;
}
// * * * * * * * * * * * * * * * * * * * * * * * * * * * * * * * * * * * * * //

solvers
{
    A
//     {
//         solver            GMRES;
//         tolerance         1e-09;
// //         relTol            1e-03;
//         relTol            1e-06;
// //         relTol            0;
//         minIter           1;
//         maxIter           1000;
//         preconditioner    Cholesky;
//         nDirections       6;
//     }
    {
        solver            BiCGStab;
        tolerance         1e-09;
//         relTol            1e-03;
        relTol            1e-06;
//         relTol            0;
        minIter           1;
        maxIter           1000;
        preconditioner    Cholesky;
    }
//     {
//         solver            AMG;
//         tolerance         1e-09;
//         relTol            0;
//         minIter           1;
//         maxIter           1000;
//         smoother          GaussSeidel;    // GaussSeidel, ILU
//         cycle             V-cycle;        // V-cycle, F-cycle, W-cycle
//         nPreSweeps        0;
//         nPostSweeps       2;
//         nMaxLevels        5;
//         scale             5;
//         coarseningType    AAMG;           // AAMG
//         groupSize         6;
//         minCoarseEqns     5;
//         norm              twoNorm;        // componentNorm, maxNorm, twoNorm
//     }

    "(VRe|VIm)"
//     {
//         solver            PCG;
//         tolerance         1e-08;
//         relTol            0;
//         preconditioner    DIC;
//     }
    {
        solver                   GAMG;
        tolerance                1e-08;
        relTol                   0.0;
        smoother                 DICGaussSeidel;
        nPreSweeps               0;
        nPostSweeps              2;
        cacheAgglomeration       on;
        agglomerator             faceAreaPair;
        nCellsInCoarsestLevel    500;
        mergeLevels              1;
    }
}

Magnetic
{
    update
    {
        active           on;
        outputCycle      2147483647;
        timeStepCycle    10;
        timeCycle        1e+100;
    }
}

// ************************************************************************* //
