/*--------------------------------*- C++ -*----------------------------------*\
| =========                 |                                                 |
| \\      /  F ield         | foam-extend: Open Source CFD                    |
|  \\    /   O peration     | Version:     3.1                                |
|   \\  /    A nd           | Web:         http://www.extend-project.de       |
|    \\/     M anipulation  |                                                 |
\*---------------------------------------------------------------------------*/
FoamFile
{
    version     2.0;
    format      ascii;
    class       dictionary;
    object      fvSolution;
}
// * * * * * * * * * * * * * * * * * * * * * * * * * * * * * * * * * * * * * //

solvers
{
    AV
    {
        solver            BiCGStab;
        tolerance         1e-07;
        relTol            1e-03;
//         relTol            1e-06;
//         relTol            0;
        minIter           1;
        maxIter           100;
        preconditioner    Cholesky;
    }
//     {
//         solver          AMG;
//         cycle           V-cycle;
//         coarseningType  AAMG;
//         norm            componentNorm;
//         normComponent   0;
//
//         nPreSweeps      2;
//         nPostSweeps     2;
//         groupSize       2;
//         minCoarseEqns   4;
//         nMaxLevels      100;
//         scale           on;
//         smoother        ILU;
//
//         minIter         0;
//         maxIter         100;
//         tolerance       1e-07;
//         relTol          1e-03;
// //         relTol          1e-06;
// //         relTol          0;
//     }
}

// ************************************************************************* //
