/*--------------------------------*- C++ -*----------------------------------*\
| =========                 |                                                 |
| \\      /  F ield         | foam-extend: Open Source CFD                    |
|  \\    /   O peration     | Version:     3.1                                |
|   \\  /    A nd           | Web:         http://www.extend-project.de       |
|    \\/     M anipulation  |                                                 |
\*---------------------------------------------------------------------------*/
FoamFile
{
    version     2.0;
    format      ascii;
    class       volScalarField;
    location    "0";
    object      p;
}
// * * * * * * * * * * * * * * * * * * * * * * * * * * * * * * * * * * * * * //

// interTrackFoamF
dimensions      [1 -1 -2 0 0 0 0];

// pisoFoamF
// dimensions      [0 2 -2 0 0 0 0];

internalField   uniform 0;

boundaryField
{
    freeSurface
    {
        type            fixedValue;
        value           uniform 0;
    }
    fixedWallSide
    {
        type            fixedGradient;
        gradient        uniform 0;
    }
    fixedWallBottom
    {
        type            fixedGradient;
        gradient        uniform 0;
    }
}

// ************************************************************************* //
