/*--------------------------------*- C++ -*----------------------------------*\
| =========                 |                                                 |
| \\      /  F ield         | foam-extend: Open Source CFD                    |
|  \\    /   O peration     | Version:     4.0                                |
|   \\  /    A nd           | Web:         http://www.foam-extend.org         |
|    \\/     M anipulation  | For copyright notice see file Copyright         |
\*---------------------------------------------------------------------------*/
FoamFile
{
    version     2.0;
    format      ascii;
    class       dictionary;
    object      fvSchemes;
}
// * * * * * * * * * * * * * * * * * * * * * * * * * * * * * * * * * * * * * //

ddtSchemes
{
    default                           none;
}

gradSchemes
{
    default                           none;

//     curl(ARe)                         Gauss linear;
//     curl(AIm)                         Gauss linear;
    curl(ARe)                         leastSquares;
    curl(AIm)                         leastSquares;

//     snGradCorr(ARe)                   Gauss linear;
//     snGradCorr(AIm)                   Gauss linear;
    snGradCorr(ARe)                   leastSquares;
    snGradCorr(AIm)                   leastSquares;
}

divSchemes
{
    default                           none;
}

laplacianSchemes
{
    default                           none;

    laplacian(ARe)                    Gauss linear corrected;
    laplacian(AIm)                    Gauss linear corrected;
}

interpolationSchemes
{
    default                           none;
}

// ************************************************************************* //
